<?xml version="1.0" encoding="UTF-8"?>

<!-- generated on 02/12/18 01:00:06 by SUMO netconvert Version 0.32.0
<?xml version="1.0" encoding="UTF-8"?>

<configuration xmlns:xsi="http://www.w3.org/2001/XMLSchema-instance" xsi:noNamespaceSchemaLocation="http://sumo.dlr.de/xsd/netconvertConfiguration.xsd">

    <input>
        <osm-files value="map.osm"/>
    </input>

    <output>
        <output-file value="map.net.xml"/>
    </output>

    <projection>
        <proj.utm value="true"/>
    </projection>

</configuration>
-->

<net version="0.27" xmlns:xsi="http://www.w3.org/2001/XMLSchema-instance" xsi:noNamespaceSchemaLocation="http://sumo.dlr.de/xsd/net_file.xsd">

    <location netOffset="-711987.81,-3920721.53" convBoundary="0.00,0.00,26023.84,30790.43" origBoundary="-0.665470,35.407339,-0.370092,35.678810" projParameter="+proj=utm +zone=30 +ellps=WGS84 +datum=WGS84 +units=m +no_defs"/>

    <type id="highway.bridleway" priority="1" numLanes="1" speed="2.78" allow="pedestrian" oneway="1" width="2.00"/>
    <type id="highway.bus_guideway" priority="1" numLanes="1" speed="8.33" allow="bus" oneway="1"/>
    <type id="highway.cycleway" priority="1" numLanes="1" speed="5.56" allow="bicycle" oneway="0" width="1.00"/>
    <type id="highway.footway" priority="1" numLanes="1" speed="2.78" allow="pedestrian" oneway="1" width="2.00"/>
    <type id="highway.ford" priority="1" numLanes="1" speed="2.78" allow="army" oneway="0"/>
    <type id="highway.living_street" priority="3" numLanes="1" speed="2.78" disallow="tram rail_urban rail rail_electric ship" oneway="0"/>
    <type id="highway.motorway" priority="13" numLanes="2" speed="44.44" allow="private emergency authority army vip passenger hov taxi bus coach delivery truck trailer motorcycle evehicle custom1 custom2" oneway="1"/>
    <type id="highway.motorway_link" priority="12" numLanes="1" speed="22.22" allow="private emergency authority army vip passenger hov taxi bus coach delivery truck trailer motorcycle evehicle custom1 custom2" oneway="1"/>
    <type id="highway.path" priority="1" numLanes="1" speed="2.78" allow="bicycle pedestrian" oneway="1" width="2.00"/>
    <type id="highway.pedestrian" priority="1" numLanes="1" speed="2.78" allow="pedestrian" oneway="1" width="2.00"/>
    <type id="highway.primary" priority="9" numLanes="2" speed="27.78" disallow="tram rail_urban rail rail_electric ship" oneway="0"/>
    <type id="highway.primary_link" priority="8" numLanes="1" speed="22.22" disallow="tram rail_urban rail rail_electric ship" oneway="0"/>
    <type id="highway.raceway" priority="14" numLanes="2" speed="83.33" allow="vip" oneway="0"/>
    <type id="highway.residential" priority="4" numLanes="1" speed="13.89" disallow="tram rail_urban rail rail_electric ship" oneway="0"/>
    <type id="highway.secondary" priority="7" numLanes="2" speed="27.78" disallow="tram rail_urban rail rail_electric ship" oneway="0"/>
    <type id="highway.secondary_link" priority="6" numLanes="1" speed="22.22" disallow="tram rail_urban rail rail_electric ship" oneway="0"/>
    <type id="highway.service" priority="2" numLanes="1" speed="5.56" allow="delivery bicycle pedestrian" oneway="0"/>
    <type id="highway.services" priority="1" numLanes="1" speed="8.33" disallow="tram rail_urban rail rail_electric ship" oneway="0"/>
    <type id="highway.stairs" priority="1" numLanes="1" speed="1.39" allow="pedestrian" oneway="1" width="2.00"/>
    <type id="highway.step" priority="1" numLanes="1" speed="1.39" allow="pedestrian" oneway="1" width="2.00"/>
    <type id="highway.steps" priority="1" numLanes="1" speed="1.39" allow="pedestrian" oneway="1" width="2.00"/>
    <type id="highway.tertiary" priority="6" numLanes="1" speed="22.22" disallow="tram rail_urban rail rail_electric ship" oneway="0"/>
    <type id="highway.tertiary_link" priority="5" numLanes="1" speed="22.22" disallow="tram rail_urban rail rail_electric ship" oneway="0"/>
    <type id="highway.track" priority="1" numLanes="1" speed="5.56" disallow="tram rail_urban rail rail_electric ship" oneway="0"/>
    <type id="highway.trunk" priority="11" numLanes="2" speed="27.78" disallow="tram rail_urban rail rail_electric bicycle pedestrian ship" oneway="0"/>
    <type id="highway.trunk_link" priority="10" numLanes="1" speed="22.22" disallow="tram rail_urban rail rail_electric bicycle pedestrian ship" oneway="0"/>
    <type id="highway.unclassified" priority="5" numLanes="1" speed="13.89" disallow="tram rail_urban rail rail_electric ship" oneway="0"/>
    <type id="highway.unsurfaced" priority="1" numLanes="1" speed="8.33" disallow="tram rail_urban rail rail_electric ship" oneway="0"/>
    <type id="railway.light_rail" priority="15" numLanes="1" speed="27.78" allow="rail_urban" oneway="1"/>
    <type id="railway.preserved" priority="15" numLanes="1" speed="27.78" allow="rail" oneway="1"/>
    <type id="railway.rail" priority="15" numLanes="1" speed="83.33" allow="rail rail_electric" oneway="1"/>
    <type id="railway.subway" priority="15" numLanes="1" speed="27.78" allow="rail_urban" oneway="1"/>
    <type id="railway.tram" priority="15" numLanes="1" speed="13.89" allow="tram" oneway="1"/>

    <edge id=":1543937205_0" function="internal">
        <lane id=":1543937205_0_0" index="0" allow="private emergency authority army vip passenger hov taxi bus coach delivery truck trailer motorcycle evehicle custom1 custom2" speed="11.11" length="33.21" shape="9213.85,18893.35 9219.76,18890.45 9228.57,18885.69 9237.33,18880.83 9243.10,18877.62"/>
    </edge>
    <edge id=":1543937205_1" function="internal">
        <lane id=":1543937205_1_0" index="0" allow="private emergency authority army vip passenger hov taxi bus coach delivery truck trailer motorcycle evehicle custom1 custom2" speed="11.11" length="33.22" shape="9213.85,18893.35 9244.55,18880.65"/>
    </edge>
    <edge id=":1543937245_0" function="internal">
        <lane id=":1543937245_0_0" index="0" allow="private emergency authority army vip passenger hov taxi bus coach delivery truck trailer motorcycle evehicle custom1 custom2" speed="13.89" length="6.35" shape="7932.45,20691.02 7934.52,20691.02 7936.02,20690.57 7936.95,20689.66 7937.32,20688.30"/>
    </edge>
    <edge id=":1543937245_1" function="internal">
        <lane id=":1543937245_1_0" index="0" allow="private emergency authority army vip passenger hov taxi bus coach delivery truck trailer motorcycle evehicle custom1 custom2" speed="13.89" length="10.42" shape="7932.45,20691.02 7935.23,20691.69 7937.10,20693.10 7938.08,20695.23 7938.16,20698.09"/>
    </edge>
    <edge id=":1543937245_2" function="internal">
        <lane id=":1543937245_2_0" index="0" allow="delivery bicycle pedestrian" speed="5.56" length="4.82" shape="7932.45,20691.02 7933.60,20691.96 7933.93,20692.82 7933.44,20693.60 7932.13,20694.30"/>
    </edge>
    <edge id=":1543937245_3" function="internal">
        <lane id=":1543937245_3_0" index="0" allow="delivery bicycle pedestrian" speed="13.89" length="5.02" shape="7934.88,20697.71 7934.84,20696.33 7934.37,20695.30 7933.47,20694.63 7932.13,20694.30"/>
    </edge>
    <edge id=":1543937245_4" function="internal">
        <lane id=":1543937245_4_0" index="0" allow="private emergency authority army vip passenger hov taxi bus coach delivery truck trailer motorcycle evehicle custom1 custom2" speed="22.22" length="9.77" shape="7934.88,20697.71 7935.46,20694.89 7936.22,20693.02 7936.91,20691.14 7937.32,20688.30"/>
    </edge>
    <edge id=":1543937245_5" function="internal">
        <lane id=":1543937245_5_0" index="0" allow="private emergency authority army vip passenger hov taxi bus coach delivery truck trailer motorcycle evehicle custom1 custom2" speed="22.22" length="4.82" shape="7934.88,20697.71 7935.84,20696.58 7936.71,20696.26 7937.48,20696.77 7938.16,20698.09"/>
    </edge>
    <edge id=":1543937247_0" function="internal">
        <lane id=":1543937247_0_0" index="0" allow="private emergency authority army vip passenger hov taxi bus coach delivery truck trailer motorcycle evehicle custom1 custom2" speed="22.22" length="9.47" shape="7926.96,20794.61 7925.90,20804.01"/>
    </edge>
    <edge id=":1543937247_1" function="internal">
        <lane id=":1543937247_1_0" index="0" allow="delivery bicycle pedestrian" speed="13.89" length="5.11" shape="7926.96,20794.61 7926.25,20797.29 7924.82,20799.13"/>
    </edge>
    <edge id=":1543937247_2" function="internal">
        <lane id=":1543937247_2_0" index="0" allow="private emergency authority army vip passenger hov taxi bus coach delivery truck trailer motorcycle evehicle custom1 custom2" speed="22.22" length="2.41" shape="7926.96,20794.61 7926.00,20795.74 7925.13,20796.05"/>
    </edge>
    <edge id=":1543937247_9" function="internal">
        <lane id=":1543937247_9_0" index="0" speed="13.89" length="5.20" shape="7924.82,20799.13 7922.68,20800.12 7919.84,20800.27"/>
    </edge>
    <edge id=":1543937247_10" function="internal">
        <lane id=":1543937247_10_0" index="0" speed="22.22" length="2.41" shape="7925.13,20796.05 7924.36,20795.55 7923.68,20794.23"/>
    </edge>
    <edge id=":1543937247_3" function="internal">
        <lane id=":1543937247_3_0" index="0" allow="private emergency authority army vip passenger hov taxi bus coach delivery truck trailer motorcycle evehicle custom1 custom2" speed="13.89" length="5.10" shape="7920.13,20796.98 7921.55,20796.91 7922.62,20796.43 7923.33,20795.54 7923.68,20794.23"/>
    </edge>
    <edge id=":1543937247_4" function="internal">
        <lane id=":1543937247_4_0" index="0" allow="private emergency authority army vip passenger hov taxi bus coach delivery truck trailer motorcycle evehicle custom1 custom2" speed="13.89" length="10.43" shape="7920.13,20796.98 7922.92,20797.63 7924.81,20799.02 7925.81,20801.15 7925.90,20804.01"/>
    </edge>
    <edge id=":1543937247_5" function="internal">
        <lane id=":1543937247_5_0" index="0" allow="delivery bicycle pedestrian" speed="5.56" length="4.82" shape="7920.13,20796.98 7921.29,20797.91 7921.63,20798.77 7921.14,20799.55 7919.84,20800.27"/>
    </edge>
    <edge id=":1543937247_6" function="internal">
        <lane id=":1543937247_6_0" index="0" allow="delivery bicycle pedestrian" speed="13.89" length="5.03" shape="7922.62,20803.66 7922.58,20802.28 7922.10,20801.25 7921.18,20800.58 7919.84,20800.27"/>
    </edge>
    <edge id=":1543937247_7" function="internal">
        <lane id=":1543937247_7_0" index="0" allow="private emergency authority army vip passenger hov taxi bus coach delivery truck trailer motorcycle evehicle custom1 custom2" speed="22.22" length="9.49" shape="7922.62,20803.66 7923.68,20794.23"/>
    </edge>
    <edge id=":1543937247_8" function="internal">
        <lane id=":1543937247_8_0" index="0" allow="private emergency authority army vip passenger hov taxi bus coach delivery truck trailer motorcycle evehicle custom1 custom2" speed="22.22" length="2.41" shape="7922.62,20803.66 7923.58,20802.52 7924.44,20802.19"/>
    </edge>
    <edge id=":1543937247_11" function="internal">
        <lane id=":1543937247_11_0" index="0" speed="22.22" length="2.41" shape="7924.44,20802.19 7925.22,20802.69 7925.90,20804.01"/>
    </edge>
    <edge id=":1543943674_0" function="internal">
        <lane id=":1543943674_0_0" index="0" allow="private emergency authority army vip passenger hov taxi bus coach delivery truck trailer motorcycle evehicle custom1 custom2" speed="27.78" length="4.32" shape="8029.53,20141.09 8026.64,20137.88"/>
    </edge>
    <edge id=":1543943674_1" function="internal">
        <lane id=":1543943674_1_0" index="0" allow="private emergency authority army vip passenger hov taxi bus coach delivery truck trailer motorcycle evehicle custom1 custom2" speed="33.33" length="2.87" shape="8026.34,20140.57 8026.64,20137.88"/>
        <lane id=":1543943674_1_1" index="1" allow="private emergency authority army vip passenger hov taxi bus coach delivery truck trailer motorcycle evehicle custom1 custom2" speed="33.33" length="2.87" shape="8029.60,20141.10 8029.92,20138.25"/>
        <lane id=":1543943674_1_2" index="2" allow="private emergency authority army vip passenger hov taxi bus coach delivery truck trailer motorcycle evehicle custom1 custom2" speed="33.33" length="2.87" shape="8032.86,20141.64 8033.20,20138.62"/>
    </edge>
    <edge id=":1543943704_0" function="internal">
        <lane id=":1543943704_0_0" index="0" allow="private emergency authority army vip passenger hov taxi bus coach delivery truck trailer motorcycle evehicle custom1 custom2" speed="44.44" length="5.02" shape="9456.01,18717.92 9455.42,18716.72 9454.62,18716.12 9453.74,18715.54 9452.95,18714.41"/>
        <lane id=":1543943704_0_1" index="1" allow="private emergency authority army vip passenger hov taxi bus coach delivery truck trailer motorcycle evehicle custom1 custom2" speed="44.44" length="5.02" shape="9459.21,18717.12 9458.59,18715.77 9457.75,18715.05 9456.83,18714.37 9455.98,18713.09"/>
    </edge>
    <edge id=":1543943704_2" function="internal">
        <lane id=":1543943704_2_0" index="0" allow="private emergency authority army vip passenger hov taxi bus coach delivery truck trailer motorcycle evehicle custom1 custom2" speed="44.44" length="1.95" shape="9459.21,18717.12 9459.71,18715.72 9460.06,18715.42"/>
    </edge>
    <edge id=":1543943704_8" function="internal">
        <lane id=":1543943704_8_0" index="0" speed="44.44" length="2.87" shape="9460.06,18715.42 9460.41,18715.12 9461.31,18715.33 9462.41,18716.33"/>
    </edge>
    <edge id=":1543943704_3" function="internal">
        <lane id=":1543943704_3_0" index="0" allow="private emergency authority army vip passenger hov taxi bus coach delivery truck trailer motorcycle evehicle custom1 custom2" speed="27.78" length="5.56" shape="9465.99,18710.08 9465.58,18711.68 9465.33,18712.81 9465.31,18713.94 9465.61,18715.53"/>
    </edge>
    <edge id=":1543943704_4" function="internal">
        <lane id=":1543943704_4_0" index="0" allow="private emergency authority army vip passenger hov taxi bus coach delivery truck trailer motorcycle evehicle custom1 custom2" speed="27.78" length="19.26" shape="9465.99,18710.08 9463.91,18716.67 9461.55,18719.37 9458.90,18718.17 9455.98,18713.09"/>
    </edge>
    <edge id=":1543943704_5" function="internal">
        <lane id=":1543943704_5_0" index="0" allow="private emergency authority army vip passenger hov taxi bus coach delivery truck trailer motorcycle evehicle custom1 custom2" speed="44.44" length="6.05" shape="9462.03,18710.45 9463.01,18712.02 9464.01,18712.93 9464.91,18713.87 9465.61,18715.53"/>
        <lane id=":1543943704_5_1" index="1" allow="private emergency authority army vip passenger hov taxi bus coach delivery truck trailer motorcycle evehicle custom1 custom2" speed="44.44" length="6.05" shape="9459.00,18711.77 9459.92,18713.19 9460.88,18713.99 9461.75,18714.82 9462.41,18716.33"/>
    </edge>
    <edge id=":1543943704_7" function="internal">
        <lane id=":1543943704_7_0" index="0" allow="private emergency authority army vip passenger hov taxi bus coach delivery truck trailer motorcycle evehicle custom1 custom2" speed="44.44" length="1.94" shape="9459.00,18711.77 9458.74,18713.23 9458.45,18713.58"/>
    </edge>
    <edge id=":1543943704_9" function="internal">
        <lane id=":1543943704_9_0" index="0" speed="44.44" length="2.88" shape="9458.45,18713.58 9458.15,18713.94 9457.23,18713.89 9455.98,18713.09"/>
    </edge>
    <edge id=":1828603747_0" function="internal">
        <lane id=":1828603747_0_0" index="0" disallow="tram rail_urban rail rail_electric ship" speed="13.89" length="4.82" shape="8079.37,19673.37 8078.40,19674.49 8077.53,19674.80 8076.76,19674.30 8076.09,19672.97"/>
    </edge>
    <edge id=":1828612687_0" function="internal">
        <lane id=":1828612687_0_0" index="0" disallow="tram rail_urban rail rail_electric ship" speed="27.78" length="0.35" shape="18532.83,17449.09 18532.64,17449.44"/>
        <lane id=":1828612687_0_1" index="1" disallow="tram rail_urban rail rail_electric ship" speed="27.78" length="0.35" shape="18529.92,17447.54 18529.77,17447.81"/>
    </edge>
    <edge id=":1828612687_2" function="internal">
        <lane id=":1828612687_2_0" index="0" disallow="tram rail_urban rail rail_electric ship" speed="27.78" length="2.41" shape="18529.92,17447.54 18528.61,17448.25 18527.69,17448.22"/>
    </edge>
    <edge id=":1828612687_6" function="internal">
        <lane id=":1828612687_6_0" index="0" speed="27.78" length="2.41" shape="18527.69,17448.22 18527.15,17447.47 18527.00,17445.99"/>
    </edge>
    <edge id=":1828612687_3" function="internal">
        <lane id=":1828612687_3_0" index="0" disallow="tram rail_urban rail rail_electric ship" speed="27.78" length="0.17" shape="18524.03,17444.55 18524.09,17444.44"/>
        <lane id=":1828612687_3_1" index="1" disallow="tram rail_urban rail rail_electric ship" speed="27.78" length="0.17" shape="18526.90,17446.18 18527.00,17445.99"/>
    </edge>
    <edge id=":1828612687_5" function="internal">
        <lane id=":1828612687_5_0" index="0" disallow="tram rail_urban rail rail_electric ship" speed="27.78" length="2.41" shape="18526.90,17446.18 18528.23,17445.51 18529.15,17445.56"/>
    </edge>
    <edge id=":1828612687_7" function="internal">
        <lane id=":1828612687_7_0" index="0" speed="27.78" length="2.41" shape="18529.15,17445.56 18529.66,17446.33 18529.77,17447.81"/>
    </edge>
    <edge id=":1828612754_0" function="internal">
        <lane id=":1828612754_0_0" index="0" disallow="tram rail_urban rail rail_electric ship" speed="27.78" length="4.82" shape="19109.34,18286.10 19110.37,18285.02 19111.25,18284.76 19111.99,18285.31 19112.59,18286.67"/>
    </edge>
    <edge id=":1828612765_0" function="internal">
        <lane id=":1828612765_0_0" index="0" disallow="tram rail_urban rail rail_electric ship" speed="27.78" length="0.19" shape="18499.13,17508.41 18499.05,17508.55"/>
        <lane id=":1828612765_0_1" index="1" disallow="tram rail_urban rail rail_electric ship" speed="27.78" length="0.19" shape="18496.26,17506.78 18496.15,17506.98"/>
    </edge>
    <edge id=":1828612765_2" function="internal">
        <lane id=":1828612765_2_0" index="0" disallow="tram rail_urban rail rail_electric ship" speed="27.78" length="2.41" shape="18496.26,17506.78 18494.93,17507.45 18494.01,17507.40"/>
    </edge>
    <edge id=":1828612765_6" function="internal">
        <lane id=":1828612765_6_0" index="0" speed="27.78" length="2.41" shape="18494.01,17507.40 18493.50,17506.64 18493.39,17505.15"/>
    </edge>
    <edge id=":1828612765_3" function="internal">
        <lane id=":1828612765_3_0" index="0" disallow="tram rail_urban rail rail_electric ship" speed="27.78" length="0.35" shape="18490.33,17503.86 18490.52,17503.52"/>
        <lane id=":1828612765_3_1" index="1" disallow="tram rail_urban rail rail_electric ship" speed="27.78" length="0.35" shape="18493.24,17505.42 18493.39,17505.15"/>
    </edge>
    <edge id=":1828612765_5" function="internal">
        <lane id=":1828612765_5_0" index="0" disallow="tram rail_urban rail rail_electric ship" speed="27.78" length="2.41" shape="18493.24,17505.42 18494.55,17504.72 18495.47,17504.75"/>
    </edge>
    <edge id=":1828612765_7" function="internal">
        <lane id=":1828612765_7_0" index="0" speed="27.78" length="2.41" shape="18495.47,17504.75 18496.01,17505.50 18496.15,17506.98"/>
    </edge>
    <edge id=":2168688953_0" function="internal">
        <lane id=":2168688953_0_0" index="0" allow="private emergency authority army vip passenger hov taxi bus coach delivery truck trailer motorcycle evehicle custom1 custom2" speed="33.33" length="4.39" shape="9377.16,18532.66 9379.25,18528.80"/>
    </edge>
    <edge id=":2168688953_1" function="internal">
        <lane id=":2168688953_1_0" index="0" allow="private emergency authority army vip passenger hov taxi bus coach delivery truck trailer motorcycle evehicle custom1 custom2" speed="33.33" length="3.75" shape="9382.33,18527.61 9386.48,18529.32"/>
        <lane id=":2168688953_1_1" index="1" allow="private emergency authority army vip passenger hov taxi bus coach delivery truck trailer motorcycle evehicle custom1 custom2" speed="33.33" length="3.75" shape="9382.33,18527.61 9383.38,18530.43"/>
    </edge>
    <edge id=":2214904968_0" function="internal">
        <lane id=":2214904968_0_0" index="0" disallow="tram rail_urban rail rail_electric ship" speed="13.89" length="14.19" shape="8345.53,18947.04 8339.78,18960.01"/>
    </edge>
    <edge id=":2214904968_1" function="internal">
        <lane id=":2214904968_1_0" index="0" allow="rail rail_electric" speed="83.33" length="20.43" shape="8333.77,18956.18 8350.67,18944.69"/>
    </edge>
    <edge id=":2214904968_2" function="internal">
        <lane id=":2214904968_2_0" index="0" disallow="tram rail_urban rail rail_electric ship" speed="13.89" length="13.99" shape="8336.76,18958.68 8342.43,18945.88"/>
    </edge>
    <edge id=":2696832112_0" function="internal">
        <lane id=":2696832112_0_0" index="0" disallow="tram rail_urban rail rail_electric ship" speed="15.28" length="0.17" shape="15298.77,17700.30 15298.76,17700.25 15298.75,17700.21 15298.74,17700.18 15298.72,17700.13"/>
    </edge>
    <edge id=":2696832112_1" function="internal">
        <lane id=":2696832112_1_0" index="0" disallow="tram rail_urban rail rail_electric ship" speed="22.22" length="2.41" shape="15298.77,17700.30 15299.29,17698.90 15300.00,17698.31"/>
    </edge>
    <edge id=":2696832112_3" function="internal">
        <lane id=":2696832112_3_0" index="0" speed="22.22" length="2.41" shape="15300.00,17698.31 15300.90,17698.53 15301.98,17699.54"/>
    </edge>
    <edge id=":2696832112_2" function="internal">
        <lane id=":2696832112_2_0" index="0" disallow="tram rail_urban rail rail_electric ship" speed="15.28" length="0.52" shape="15301.86,17699.04 15301.98,17699.54"/>
    </edge>
    <edge id=":2696832113_0" function="internal">
        <lane id=":2696832113_0_0" index="0" disallow="tram rail_urban rail rail_electric ship" speed="8.33" length="7.37" shape="15280.38,17662.22 15279.19,17660.37 15278.37,17659.06 15277.33,17657.99 15275.50,17656.89"/>
    </edge>
    <edge id=":2696832113_1" function="internal">
        <lane id=":2696832113_1_0" index="0" disallow="tram rail_urban rail rail_electric ship" speed="8.33" length="7.38" shape="15282.59,17658.78 15280.42,17658.42 15278.92,17658.19 15277.49,17657.78 15275.50,17656.89"/>
    </edge>
    <edge id=":2696832114_0" function="internal">
        <lane id=":2696832114_0_0" index="0" disallow="tram rail_urban rail rail_electric ship" speed="8.33" length="7.13" shape="15298.85,17650.82 15297.80,17652.58 15297.44,17653.98 15297.43,17655.49 15297.40,17657.62"/>
    </edge>
    <edge id=":2696832114_1" function="internal">
        <lane id=":2696832114_1_0" index="0" disallow="tram rail_urban rail rail_electric ship" speed="8.33" length="7.17" shape="15298.85,17650.82 15297.55,17652.49 15296.53,17653.52 15295.38,17654.43 15293.71,17655.77"/>
    </edge>
    <edge id=":2696832116_0" function="internal">
        <lane id=":2696832116_0_0" index="0" disallow="tram rail_urban rail rail_electric ship" speed="11.11" length="3.62" shape="15324.96,17629.65 15323.92,17629.91 15323.22,17630.15 15322.58,17630.52 15321.71,17631.14"/>
    </edge>
    <edge id=":2696832116_1" function="internal">
        <lane id=":2696832116_1_0" index="0" disallow="tram rail_urban rail rail_electric ship" speed="13.89" length="2.41" shape="15324.96,17629.65 15323.57,17629.13 15322.98,17628.42"/>
    </edge>
    <edge id=":2696832116_4" function="internal">
        <lane id=":2696832116_4_0" index="0" speed="13.89" length="2.41" shape="15322.98,17628.42 15323.20,17627.52 15324.22,17626.44"/>
    </edge>
    <edge id=":2696832116_2" function="internal">
        <lane id=":2696832116_2_0" index="0" disallow="tram rail_urban rail rail_electric ship" speed="11.11" length="4.64" shape="15319.64,17626.93 15321.01,17627.01 15321.95,17626.96 15322.88,17626.76 15324.22,17626.44"/>
    </edge>
    <edge id=":2696832116_3" function="internal">
        <lane id=":2696832116_3_0" index="0" disallow="tram rail_urban rail rail_electric ship" speed="8.33" length="4.31" shape="15319.64,17626.93 15322.37,17627.44 15323.63,17628.31"/>
    </edge>
    <edge id=":2696832116_5" function="internal">
        <lane id=":2696832116_5_0" index="0" speed="8.33" length="3.59" shape="15323.63,17628.31 15323.41,17629.54 15321.71,17631.14"/>
    </edge>
    <edge id=":2696832117_0" function="internal">
        <lane id=":2696832117_0_0" index="0" disallow="tram rail_urban rail rail_electric ship" speed="8.33" length="7.84" shape="15292.72,17623.78 15294.86,17624.64 15296.42,17624.93 15298.04,17624.98 15300.37,17625.11"/>
    </edge>
    <edge id=":2696832117_1" function="internal">
        <lane id=":2696832117_1_0" index="0" disallow="tram rail_urban rail rail_electric ship" speed="8.33" length="8.01" shape="15292.72,17623.78 15294.88,17624.77 15296.35,17625.60 15297.49,17626.76 15298.68,17628.76"/>
    </edge>
    <edge id=":2696832118_0" function="internal">
        <lane id=":2696832118_0_0" index="0" disallow="tram rail_urban rail rail_electric ship" speed="8.33" length="7.29" shape="15305.81,17642.74 15303.99,17643.94 15302.70,17644.78 15301.67,17645.83 15300.65,17647.68"/>
    </edge>
    <edge id=":2696832118_1" function="internal">
        <lane id=":2696832118_1_0" index="0" disallow="tram rail_urban rail rail_electric ship" speed="8.33" length="7.31" shape="15302.31,17640.60 15302.02,17642.75 15301.83,17644.24 15301.46,17645.68 15300.65,17647.68"/>
    </edge>
    <edge id=":2696832129_0" function="internal">
        <lane id=":2696832129_0_0" index="0" disallow="tram rail_urban rail rail_electric ship" speed="11.11" length="10.36" shape="15263.81,17628.81 15266.57,17627.57 15268.59,17625.96 15269.87,17623.98 15270.41,17621.65"/>
    </edge>
    <edge id=":2696832129_1" function="internal">
        <lane id=":2696832129_1_0" index="0" disallow="tram rail_urban rail rail_electric ship" speed="9.72" length="8.97" shape="15263.81,17628.81 15266.37,17628.03 15268.14,17627.50 15269.79,17626.73 15271.96,17625.23"/>
    </edge>
    <edge id=":2696832129_2" function="internal">
        <lane id=":2696832129_2_0" index="0" disallow="tram rail_urban rail rail_electric ship" speed="9.72" length="11.32" shape="15266.41,17632.13 15267.67,17629.20 15268.89,17626.99 15269.87,17624.72 15270.41,17621.65"/>
    </edge>
    <edge id=":2696832129_3" function="internal">
        <lane id=":2696832129_3_0" index="0" disallow="tram rail_urban rail rail_electric ship" speed="8.33" length="9.09" shape="15266.41,17632.13 15267.39,17629.67 15268.41,17628.13 15269.81,17626.86 15271.96,17625.23"/>
    </edge>
    <edge id=":2696832130_0" function="internal">
        <lane id=":2696832130_0_0" index="0" allow="private emergency authority army vip passenger hov taxi bus coach delivery truck trailer motorcycle evehicle custom1 custom2" speed="9.72" length="8.27" shape="15270.51,17653.48 15268.60,17651.99 15267.11,17651.23 15265.48,17650.70 15263.16,17649.87"/>
    </edge>
    <edge id=":2696832130_1" function="internal">
        <lane id=":2696832130_1_0" index="0" disallow="tram rail_urban rail rail_electric ship" speed="8.33" length="8.37" shape="15270.51,17653.48 15268.66,17651.84 15267.48,17650.56 15266.67,17649.06 15265.93,17646.72"/>
    </edge>
    <edge id=":2696832155_0" function="internal">
        <lane id=":2696832155_0_0" index="0" disallow="tram rail_urban rail rail_electric ship" speed="9.72" length="12.17" shape="15204.07,17377.24 15206.86,17375.06 15208.90,17372.71 15210.20,17370.22 15210.75,17367.56"/>
    </edge>
    <edge id=":2696832155_1" function="internal">
        <lane id=":2696832155_1_0" index="0" disallow="tram rail_urban rail rail_electric ship" speed="9.72" length="13.04" shape="15204.07,17377.24 15206.92,17375.31 15209.42,17373.51 15211.83,17371.61 15214.43,17369.35"/>
    </edge>
    <edge id=":2696832155_2" function="internal">
        <lane id=":2696832155_2_0" index="0" disallow="tram rail_urban rail rail_electric ship" speed="8.33" length="12.90" shape="15207.46,17380.01 15208.27,17376.68 15209.28,17373.81 15210.21,17370.92 15210.75,17367.56"/>
    </edge>
    <edge id=":2696832155_3" function="internal">
        <lane id=":2696832155_3_0" index="0" disallow="tram rail_urban rail rail_electric ship" speed="8.33" length="13.03" shape="15207.46,17380.01 15208.37,17376.73 15209.86,17374.09 15211.89,17371.74 15214.43,17369.35"/>
    </edge>
    <edge id=":2696832156_0" function="internal">
        <lane id=":2696832156_0_0" index="0" allow="private emergency authority army vip passenger hov taxi bus coach delivery truck trailer motorcycle evehicle custom1 custom2" speed="9.72" length="14.19" shape="15219.38,17402.64 15216.87,17400.02 15214.08,17397.94 15210.96,17396.41 15207.48,17395.46"/>
    </edge>
    <edge id=":2696832156_1" function="internal">
        <lane id=":2696832156_1_0" index="0" disallow="tram rail_urban rail rail_electric ship" speed="8.33" length="14.75" shape="15219.38,17402.64 15216.85,17399.91 15214.22,17397.32 15211.73,17394.64 15209.64,17391.61"/>
    </edge>
    <edge id=":2696832156_2" function="internal">
        <lane id=":2696832156_2_0" index="0" allow="private emergency authority army vip passenger hov taxi bus coach delivery truck trailer motorcycle evehicle custom1 custom2" speed="9.72" length="14.79" shape="15221.81,17399.06 15218.16,17398.42 15214.62,17397.41 15211.09,17396.33 15207.48,17395.46"/>
    </edge>
    <edge id=":2696832156_3" function="internal">