<?xml version="1.0" encoding="UTF-8"?>

<!-- generated on 02/12/18 01:01:00 by SUMO polyconvert Version 0.32.0
<?xml version="1.0" encoding="UTF-8"?>

<configuration xmlns:xsi="http://www.w3.org/2001/XMLSchema-instance" xsi:noNamespaceSchemaLocation="http://sumo.dlr.de/xsd/polyconvertConfiguration.xsd">

    <input>
        <net-file value="map.net.xml"/>
        <osm-files value="map.osm"/>
        <type-file value="typemap.xml"/>
    </input>

    <output>
        <output-file value="map.poly.xml"/>
    </output>

    <processing>
        <poi-layer-offset value="5"/>
    </processing>

</configuration>
-->

<additional xmlns:xsi="http://www.w3.org/2001/XMLSchema-instance" xsi:noNamespaceSchemaLocation="http://sumo.dlr.de/xsd/additional_file.xsd">
    <location netOffset="-711987.81,-3920721.53" convBoundary="-40933.48,-3149.61,26023.85,35105.78" origBoundary="-1.116672,35.386840,-0.370092,35.719878" projParameter="+proj=utm +zone=30 +ellps=WGS84 +datum=WGS84 +units=m +no_defs"/>

    <poly id="180373583" type="industrial" color="209,209,204" fill="1" layer="-3.00" shape="7844.35,21236.81 7331.18,21179.62 7431.44,20939.97 7489.84,20780.65 7581.93,20402.69 7938.47,20497.28 7903.45,20891.56 7881.06,21089.54 7844.35,21236.81"/>
    <poly id="180400166" type="industrial" color="209,209,204" fill="1" layer="-3.00" shape="17798.57,20318.00 17619.10,20055.77 17139.03,20397.26 17144.73,20405.58 16814.86,20654.09 16737.90,20771.42 16785.57,20809.45 16819.59,20829.70 16877.19,20838.03 17346.44,20847.20 17376.19,20746.73 17411.25,20726.33 17422.99,20667.55 17418.26,20646.04 17389.25,20582.33 17798.57,20318.00"/>
    <poly id="180401129" type="water" color="181,209,209" fill="1" layer="-4.00" shape="14419.90,19838.77 14193.45,19941.89 13995.61,20031.80 13924.51,20036.78 13918.82,20067.63 13916.77,20088.89 13953.83,20145.04 13955.21,20167.35 13996.71,20236.20 14001.23,20271.18 14042.20,20305.16 14107.50,20338.78 14140.48,20359.95 14333.02,20422.95 14475.21,20434.31 14511.39,20410.05 14616.16,20460.17 14682.96,20528.70 14706.70,20551.59 14787.18,20621.43 14891.44,20653.14 14939.29,20684.38 14960.16,20705.25 15059.30,20747.49 15114.06,20812.81 15178.07,20837.69 15263.20,20856.32 15330.15,20846.41 15351.91,20832.43 15373.84,20811.69 15411.45,20765.19 15446.48,20709.91 15469.63,20641.72 15481.72,20549.05 15488.90,20458.19 15436.10,20356.11 15342.90,20249.12 15261.72,20097.88 15152.27,20017.61 14757.10,19893.25 14419.90,19838.77"/>
    <poly id="180401801" type="industrial" color="209,209,204" fill="1" layer="-3.00" shape="13787.86,18283.69 13791.98,18308.08 13807.11,18331.28 13837.36,18460.44 13762.95,18478.42 13744.83,18388.83 13734.09,18390.47 13724.48,18366.00 13722.99,18348.53 13706.78,18333.13 13621.78,18290.74 13605.13,18292.91 13586.19,18293.72 13551.58,18315.61 13470.04,18346.01 13512.56,18394.09 13350.43,18475.25 13314.75,18327.58 13301.60,18330.12 13250.27,18338.58 13217.90,18345.54 13172.38,18358.86 13050.53,18386.31 13027.22,18290.26 12900.47,18319.52 12887.77,18348.09 12872.23,18378.61 12868.98,18408.68 12827.66,18466.05 12719.92,18577.61 12439.73,18507.05 12381.83,18539.57 12488.27,18574.58 12481.07,18589.91 12444.18,18586.55 12431.79,18631.79 12367.49,18791.93 12262.68,18650.86 12292.96,18621.50 12283.35,18595.12 12278.16,18590.61 12265.64,18585.45 12229.54,18550.64 12212.96,18532.79 12160.60,18467.04 12035.05,18565.13 11867.13,18703.32 11846.71,18702.80 11725.37,18630.92 11591.50,18600.10 11368.72,18612.38 11316.29,18629.47 11039.38,18630.29 10927.64,18567.43 11001.23,18543.12 11331.49,18449.66 11883.48,18323.03 12352.86,18214.77 12445.40,18193.43 12911.18,18087.28 13192.01,18027.68 13349.58,17994.85 13427.30,17982.72 13780.17,18193.29 13787.86,18283.69"/>
    <poly id="180403319" type="residential" color="235,235,227" fill="1" layer="-3.00" shape="8984.57,17777.48 8955.10,17749.14 8838.77,17652.77 8618.03,17467.13 8585.93,17448.87 8485.84,17362.28 8497.28,17351.92 8463.11,17317.08 8454.08,17328.14 8429.87,17305.87 8504.32,17226.70 8458.06,17186.72 8306.25,17069.92 8352.34,17016.42 8341.91,17005.41 8357.39,16987.41 8509.17,17146.65 8665.53,17317.16 8782.84,17435.33 8902.81,17559.91 8939.28,17602.45 8965.90,17647.19 8977.63,17684.29 8989.16,17727.72 8991.85,17776.23 8984.57,17777.48"/>
    <poly id="180568142" type="water" color="181,209,209" fill="1" layer="-4.00" shape="7444.67,14600.92 7468.81,14529.41 7546.60,14509.13 7612.42,14504.54 7697.11,14556.34 7817.94,14551.37 7750.55,14401.73 7918.61,14471.37 8030.00,14534.01 8112.73,14573.95 8210.81,14585.47 8271.50,14609.54 8348.43,14649.91 8426.23,14692.54 8538.82,14743.10 8606.54,14799.92 8676.27,14893.02 8706.96,14951.06 8710.28,15015.49 8731.34,15069.30 8743.96,15110.32 8742.43,15172.30 8741.88,15194.58 8738.19,15225.50 8746.72,15232.79 8757.91,15333.56 8750.73,15387.64 8728.11,15436.50 8671.44,15484.53 8677.00,15533.41 8703.72,15635.52 8759.98,15722.19 8827.62,15779.39 8934.05,15846.66 9098.71,15918.56 9216.23,15967.98 9431.79,16067.32 9473.62,16107.12 9546.37,16196.13 9622.45,16267.79 9651.12,16328.58 9660.13,16396.63 9649.47,16472.91 9616.62,16578.96 9565.69,16670.72 9509.34,16744.90 9456.59,16792.03 9416.12,16816.89 9359.97,16841.95 9324.10,16836.51 9252.25,16798.40 9207.77,16766.78 9193.00,16754.29 9172.32,16724.72 9156.13,16710.26 9140.93,16675.97 9119.19,16649.76 9098.44,16642.46 9074.75,16616.69 9045.41,16602.89 9021.23,16596.95 8998.65,16584.77 8971.84,16547.77 8965.32,16535.98 8958.71,16527.57 8948.66,16520.54 8932.06,16503.18 8903.46,16459.36 8876.74,16418.00 8848.72,16390.18 8829.07,16378.06 8802.06,16368.19 8772.34,16350.01 8749.73,16319.89 8720.10,16277.99 8714.56,16266.22 8708.71,16246.70 8671.29,16185.70 8634.73,16148.45 8618.11,16132.06 8594.52,16099.79 8581.39,16081.73 8561.26,16049.74 8530.09,16011.18 8514.40,15996.27 8501.76,15976.08 8463.21,15940.73 8450.02,15922.97 8415.87,15887.23 8406.77,15881.20 8378.48,15844.16 8357.12,15802.45 8335.07,15769.45 8319.59,15745.81 8290.73,15712.64 8239.69,15670.67 8217.33,15649.29 8194.90,15611.91 8163.67,15587.60 8122.40,15565.95 8082.43,15529.11 8044.78,15476.82 7988.05,15407.10 7922.99,15282.23 7890.53,15216.79 7883.83,15172.73 7797.07,15122.33 7701.00,15055.24 7628.81,15002.00 7571.64,14944.20 7536.83,14890.62 7506.13,14852.46 7469.93,14792.75 7456.13,14748.61 7448.83,14669.15 7444.67,14600.92"/>
    <poly id="180784232" type="landuse" color="194,194,130" fill="1" layer="-3.00" shape="11176.35,21069.69 11028.10,21085.35 10939.14,21063.75 10787.19,21071.57 10514.28,20936.92 10295.04,20834.59 10031.18,20804.78 9696.17,20819.68 9779.95,20736.54 9955.44,20697.71 10087.18,20720.37 10255.07,20721.25 10436.68,20772.27 10586.31,20857.36 10639.03,20904.59 10731.87,20926.28 10818.48,20909.65 10910.37,20946.22 10980.46,20967.94 11011.95,20953.23 11178.10,20999.99 11254.04,21075.51 11176.35,21069.69"/>
    <poly id="180784233" type="landuse" color="194,194,130" fill="1" layer="-3.00" shape="14228.06,20793.50 14217.22,20991.52 14235.49,21038.47 14309.33,21195.30 14394.94,21348.56 14380.61,21452.79 14344.93,21479.01 14247.32,21492.02 14150.12,21466.11 14050.47,21412.71 13896.50,21346.83 13812.51,21282.71 13425.95,21350.79 13306.78,21277.66 12994.53,21177.19 12788.84,21001.54 12609.00,20864.90 12595.98,20763.85 12421.75,20744.36 12306.25,20694.96 12157.89,20714.47 11963.54,20535.63 11629.97,20491.62 11577.86,20397.33 11272.56,20328.08 11072.46,20237.84 11053.27,20127.46 11124.23,20013.20 11233.60,19903.77 11429.27,19804.71 11655.80,19632.55 11909.79,19747.41 12079.55,19805.92 12382.72,19821.29 12477.23,19916.27 12689.96,19984.00 12877.03,19973.22 13167.73,20174.28 13533.28,20384.60 14004.19,20597.99 14228.06,20793.50"/>
    <poly id="180784235" type="landuse" color="194,194,130" fill="1" layer="-3.00" shape="11358.60,18757.16 11352.20,19012.75 11517.91,19233.88 11630.32,19407.18 11604.27,19515.02 11453.94,19441.13 11105.07,19385.89 10873.99,19148.03 10774.80,19068.05 10602.86,18923.88 10522.91,18729.24 10481.96,18642.83 10738.76,18640.92 11041.96,18656.25 11126.19,18712.60 11358.60,18757.16"/>
    <poly id="181602771" type="forest" color="140,196,107" fill="1" layer="-3.00" shape="11705.81,20252.10 11692.10,20178.15 11752.68,20090.56 11765.60,20040.52 11821.61,19979.93 11881.30,19927.18 12038.92,20004.76 12248.64,20021.66 12279.75,20022.44 12336.44,20089.73 12509.60,20167.70 12644.65,20213.72 12724.09,20149.86 12959.76,20217.79 13175.60,20300.73 13544.35,20492.14 13605.95,20671.91 13736.21,20752.69 13850.33,20856.31 13893.27,21004.62 13938.66,21056.12 13922.03,21098.32 13836.48,21096.15 13766.08,21109.86 13704.65,21077.31 13686.28,21034.23 13570.60,20992.57 13404.73,21089.09 13240.41,21123.68 13163.35,20939.65 13105.92,20748.37 13079.58,20712.84 12947.25,20713.37 12685.14,20768.75 12632.26,20705.43 12622.05,20647.06 12531.84,20520.82 12418.37,20545.08 12336.41,20554.64 12258.06,20420.95 12242.41,20269.46 12225.10,20183.79 12090.54,20273.39 12030.84,20326.13 11972.21,20336.27 11847.48,20344.76 11774.07,20323.55 11705.81,20252.10"/>
    <poly id="200976120" type="unknown" color="51,128,255" fill="0" layer="-1.00" shape="-40933.48,-3149.61 -40853.43,-3081.71 -40578.69,-2839.05 -40232.18,-2524.34 -40019.31,-2340.59 -39774.32,-2119.42 -39366.11,-1750.84 -39066.82,-1498.20 -38713.83,-1419.82 -38204.39,-1306.69 -37766.83,-1208.04 -36848.87,-1001.00 -36390.50,-896.03 -35906.00,-785.04 -35425.38,-685.72 -35037.45,-598.85 -34583.46,-497.67 -34132.87,-397.23 -33459.24,-247.03 -33055.29,-156.92 -32633.87,-62.91 -32202.26,31.09 -31763.36,129.30 -31459.57,198.23 -31115.06,232.80 -30687.94,279.05 -30253.01,326.45 -29785.82,374.77 -29323.14,426.33 -28882.92,472.63 -28500.25,515.69 -27939.24,578.67 -27553.07,620.47 -27014.58,664.04 -26644.06,689.65 -26276.10,721.80 -25861.95,752.48 -25482.85,749.30 -25066.76,753.47 -24766.84,752.12 -24421.50,753.81 -24171.96,771.81 -23799.08,800.70 -23422.80,832.79 -22991.76,868.48 -22552.33,901.93 -22111.86,934.74 -21699.83,966.97 -21279.57,1003.88 -20903.48,1028.13 -20497.03,1060.98 -20062.89,1098.24 -19694.54,1127.22 -19219.12,1164.72 -18731.60,1204.23 -18246.80,1241.65 -17803.58,1275.42 -17528.25,1287.95 -17154.78,1304.69 -16812.89,1321.80 -16364.59,1344.69 -15916.90,1364.14 -15492.77,1382.07 -15026.41,1405.08 -14544.42,1427.42 -14065.54,1449.04 -13584.57,1471.06 -13149.84,1495.90 -12659.12,1516.12 -12230.60,1539.13 -11864.05,1648.21 -11437.17,1775.23 -10992.01,1907.18 -10542.09,2043.40 -10090.91,2184.51 -9650.41,2321.60 -9195.93,2453.50 -8745.39,2590.86 -8310.09,2726.17 -7860.60,2862.86 -7483.46,2975.11 -7114.73,3090.99 -6687.01,3221.71 -6262.95,3345.45 -5856.33,3457.07 -5477.69,3562.87 -5075.94,3674.40 -4678.37,3786.56 -4270.07,3899.31 -3883.11,4004.00 -3458.69,4124.08 -2999.35,4249.82 -2550.74,4374.90 -2091.85,4502.87 -1630.63,4633.49 -1231.45,4748.24 -925.58,4977.93 -574.36,5241.17 -312.97,5442.87 70.19,5733.83 439.69,6013.77 806.17,6288.45 1185.76,6580.39 1531.29,6844.23 1911.91,7134.47 2279.89,7415.80 2649.73,7688.96 3024.66,7971.49 3353.42,8214.33 3519.35,8576.82 3694.96,8964.44 3869.42,9337.87 4052.54,9717.83 4224.90,10096.07 4410.35,10499.99 4598.27,10898.64 4786.81,11298.67 4986.55,11718.05 5184.99,12149.59 5362.22,12524.94 5593.81,12821.53 5845.78,13146.46 6087.36,13454.53 6359.26,13805.31 6591.93,14110.34 6907.25,14513.59 7159.29,14838.68 7444.53,15194.26 7724.61,15561.45 7997.00,15873.92 8282.73,16187.48 8624.04,16575.18 8892.87,16883.40 9034.08,17092.94 9214.30,17355.75 9430.63,17671.26 9677.29,18031.00 9939.32,18421.58 10266.41,18896.16 10467.30,19205.44 10667.99,19494.71 10938.17,19886.43 11234.42,20315.37 11379.56,20552.18 11596.33,20915.65 11785.83,21216.15 12009.37,21581.24 12230.56,21941.88 12483.45,22346.23 12728.03,22749.38 12962.52,23123.99 13138.47,23410.80 13372.41,23792.69 13632.96,24215.79 13780.98,24452.68 13965.38,24760.91 14194.73,25122.65 14472.39,25577.85 14723.25,25987.84 15144.33,26225.98 15531.99,26450.09 15749.23,26571.55 16004.06,26984.41 16244.53,27370.71 16487.76,27770.78 16659.68,28046.26 16885.59,28412.22 17170.94,28875.03 17382.99,29218.81 17663.42,29676.50 17874.38,30012.14 18173.14,30508.91 18041.92,31033.75 17944.84,31424.29 17846.26,31824.73 17747.81,32220.19 17673.73,32520.33 17589.19,32862.56 17483.71,33288.91 17416.77,33555.58 17284.35,33887.19 17131.19,34271.80 17004.97,34582.36 16881.47,34884.28 16738.40,35105.78"/>
    <poly id="238431462" type="water" color="181,209,209" fill="0" layer="-4.00" shape="19168.75,21459.36 19110.37,21459.78 19044.76,21438.71 17726.52,20875.14 16824.56,20840.99 16734.72,20774.82"/>
    <poly id="238431480" type="water" color="181,209,209" fill="0" layer="-4.00" shape="16725.28,20766.77 16202.19,20298.13 16185.67,20297.71 16014.55,20331.11 15986.53,20323.61 15933.52,20266.07 15925.18,20211.61 15896.78,20180.86 15872.28,20111.46 15878.36,19987.63 15858.59,19961.94 15819.26,19939.63 15675.25,19902.05 15528.73,19886.68 15319.27,19859.06 15238.91,19843.46 15030.74,19880.10 14780.73,19840.51 14527.30,19781.76 14222.28,19685.87 14192.08,19687.04 13734.30,19783.25 13423.14,19776.06 13304.83,19760.48 13161.93,19717.15 13042.60,19664.73 12909.40,19583.89 12374.99,19168.71 12067.71,18928.50 12043.53,18922.76 11801.48,18719.35 11741.33,18673.28 11681.77,18642.73 11615.09,18624.29 11538.25,18623.33 11041.57,18639.96 10758.64,18630.96 10660.18,18638.48 10635.82,18639.52 10621.57,18625.60"/>
    <poly id="315959548" type="residential" color="235,235,227" fill="1" layer="-3.00" shape="20052.12,17267.38 19993.89,17148.62 19931.28,17085.95 19851.38,17051.89 19843.59,17089.48 19724.30,17110.61 19775.51,17312.52 19496.22,17385.70 19448.62,17156.75 19436.48,17059.50 19424.45,16992.38 19415.76,16926.94 19417.24,16854.01 19398.48,16838.59 19338.76,16846.63 19347.03,16884.37 19348.61,16920.54 19345.23,16960.76 19337.93,17002.43 19329.70,17049.50 19317.02,17136.38 19314.18,17179.41 19272.98,17399.29 19224.73,17421.29 19037.01,17378.64 19040.52,17243.08 18901.22,17210.41 18882.70,17060.70 18827.73,17078.66 18832.30,17128.19 18809.19,17193.48 18711.91,17379.92 18783.78,17423.44 18743.00,17495.06 18703.19,17491.12 18559.00,17421.50 18619.39,17306.80 18490.95,17343.20 18470.84,17255.48 18504.05,17250.52 18491.93,17192.07 18690.49,17116.78 18810.02,16897.97 18838.83,16837.66 18864.74,16814.65 18839.52,16649.98 18712.23,16684.16 18365.90,16755.49 18333.71,16599.19 18278.42,16434.62 18286.41,16424.57 18573.78,16332.54 18638.56,16299.37 18737.82,16228.25 18795.87,16165.62 18845.12,16105.66 18892.19,16045.16 18901.79,16032.26 18974.85,15934.18 19027.09,15864.06 19049.28,15881.61 19032.00,15907.34 19039.66,15913.77 19018.83,15946.24 19028.53,15948.38 19117.72,15831.00 19155.70,15755.43 19175.13,15700.69 19204.88,15641.85 19198.15,15638.28 19410.05,15349.99 19457.49,15284.83 19482.37,15254.67 19508.75,15222.68 19563.56,15164.37 19598.62,15182.73 19589.90,15204.20 19571.12,15245.88 19651.49,15184.30 19673.55,15202.61 19642.04,15254.12 19620.09,15312.19 19581.41,15395.98 19574.53,15454.93 19583.57,15481.81 19577.16,15503.46 19559.05,15526.25 19512.62,15571.07 19434.63,15669.36 19427.42,15665.78 19409.12,15714.73 19377.05,15862.66 19196.33,15849.74 19165.17,15906.12 19149.29,15955.61 19194.12,15953.39 19216.09,16045.05 19194.55,16049.82 19202.17,16075.21 19287.25,16059.98 19299.17,16060.29 19325.57,16074.29 19315.17,16146.95 19323.09,16191.89 19344.67,16319.47 19342.73,16354.52 19319.72,16421.56 19477.03,16395.17 19533.77,16367.22 19570.37,16335.64 19551.14,16257.18 19519.82,16245.01 19451.16,16232.90 19415.27,16237.14 19405.22,16231.62 19376.77,16231.90 19371.33,16213.18 19366.54,16197.52 19364.86,16185.87 19364.02,16170.13 19396.44,16177.06 19398.47,16164.93 19426.47,16171.64 19422.63,16182.67 19440.90,16186.59 19495.60,16148.61 19541.31,16113.24 19542.70,16137.83 19601.32,16129.66 20118.88,16038.42 20153.60,16188.83 20197.96,16164.75 20234.35,16230.41 20305.18,16201.24 20393.02,16323.69 20504.29,16274.26 20566.98,16334.04 20636.07,16447.28 20843.14,16946.52 20624.51,17040.04 20649.31,17096.88 20433.40,17164.91 20052.12,17267.38"/>
    <poly id="316955644" type="unknown" color="51,128,255" fill="0" layer="-1.00" shape="12048.24,18913.00 12911.80,19580.73 13044.45,19661.23 13161.28,19713.51 13303.75,19757.16 13425.76,19772.48 13733.43,19781.11 14178.82,19686.13 14205.20,19681.33 14236.91,19683.40 14523.36,19777.11 14794.96,19838.82 15031.56,19877.31 15224.69,19843.85 15245.12,19840.16 15315.12,19851.64 15421.47,19866.16 15586.16,19885.12 15661.35,19892.94 15762.36,19917.44 15836.24,19943.36 15864.57,19961.79 15878.52,19979.02 15877.75,20108.86 15881.41,20147.74 15894.82,20186.45 15920.44,20211.14 15927.36,20255.59 15953.04,20294.61 15974.81,20320.89 15988.18,20327.97 16002.08,20330.85 16048.54,20319.40 16177.49,20294.44 16194.89,20293.20 16210.01,20298.23 16724.09,20762.45 16737.42,20773.68 16821.94,20835.17 16841.76,20840.28 16933.41,20842.16 17412.08,20860.27 17734.50,20871.01 19045.63,21432.67 19112.22,21452.01 22392.65,22690.44"/>
    <poly id="316955645" type="water" color="181,209,209" fill="0" layer="-4.00" shape="16734.72,20774.82 16725.28,20766.77"/>
    <poly id="317729789" type="building" color="255,230,230" fill="1" layer="-1.00" shape="15985.19,17645.75 15999.11,17708.13 16009.94,17705.48 16007.98,17696.22 16028.42,17691.41 16067.66,17855.19 16022.65,17864.70 16003.26,17783.72 15998.81,17784.65 15993.64,17763.45 15998.10,17762.15 15997.15,17758.20 15938.78,17771.78 15935.38,17757.23 15854.37,17776.11 15822.85,17637.96 15813.57,17639.91 15805.80,17607.99 15871.39,17592.71 15876.53,17614.15 15871.14,17615.47 15874.49,17632.03 15865.79,17634.59 15876.34,17679.92 15905.39,17673.75 15903.79,17665.23 15985.19,17645.75"/>
    <poly id="317729791" type="industrial" color="209,209,204" fill="1" layer="-3.00" shape="16077.59,17466.21 16145.43,17762.97 16146.08,17794.95 16212.23,18060.18 16040.10,18100.29 15840.75,18146.58 15704.06,17554.53 15830.43,17524.65 16077.59,17466.21"/>
    <poly id="317729791#1" type="building" color="255,230,230" fill="1" layer="-1.00" shape="16077.59,17466.21 16145.43,17762.97 16146.08,17794.95 16212.23,18060.18 16040.10,18100.29 15840.75,18146.58 15704.06,17554.53 15830.43,17524.65 16077.59,17466.21"/>
    <poly id="368628972" type="forest" color="140,196,107" fill="1" layer="-4.00" shape="18863.01,20419.91 18873.21,20398.04 18897.72,20428.70 18944.54,20427.83 18968.35,20410.04 18912.14,20364.03 18890.10,20309.36 18871.88,20302.93 18868.93,20277.76 18850.21,20196.93 18835.25,20177.08 18850.19,20126.13 18841.49,20086.18 18892.25,20075.97 18851.85,20024.46 18856.87,19943.22 18878.76,19920.63 18875.55,19860.40 18898.27,19843.65 18887.66,19806.46 18898.35,19768.96 18902.20,19733.22 18923.44,19735.80 18924.60,19657.26 18935.70,19604.28 18953.02,19536.91 18950.31,19491.32 18907.50,19637.55 18893.33,19700.05 18879.17,19679.44 18918.00,19461.42 18890.16,19521.73 18872.90,19621.16 18860.05,19707.90 18840.84,19811.06 18826.61,19909.50 18800.34,20056.15 18780.51,20073.94 18801.53,20089.02 18792.13,20113.97 18797.26,20137.45 18791.86,20195.42 18772.81,20258.77 18792.53,20248.62 18794.55,20283.50 18802.30,20280.93 18801.27,20324.35 18823.11,20341.53 18825.27,20374.37 18841.10,20401.90 18863.01,20419.91"/>
    <poly id="381141217" type="unknown" color="51,128,255" fill="0" layer="-1.00" shape="24037.05,15182.06 23805.38,15354.91 23542.77,15551.12 23276.89,15753.45 23024.73,15941.99 22807.89,16106.27 22465.28,16362.66 21635.88,16985.17 21370.14,17183.12 21119.57,17373.25 20891.82,17544.70 20675.80,17707.43 20449.84,17876.49 20168.87,18087.79 19924.98,18267.86 19693.25,18442.88 19486.71,18601.46 19248.76,18780.96 19018.20,18949.67 18763.04,19141.39 18495.82,19345.03 18233.22,19540.96 17980.38,19729.84 17718.51,19926.78 17496.92,20092.07 17242.58,20283.36 16990.27,20472.00 16783.81,20631.35 16537.83,20812.61 16293.48,20997.81 16048.93,21182.03 15804.44,21363.83 15559.43,21547.32 15306.86,21739.39 15021.67,21953.07 14714.00,22183.99 14478.20,22363.56 14224.26,22553.90 14003.05,22719.24 13782.84,22912.88 13522.48,23135.49 13218.60,23394.06 12991.53,23589.23 12760.14,23791.37 12524.13,23993.58 12261.15,24217.59 12042.90,24406.26 11851.20,24572.54 11664.70,24731.47 11385.56,24971.44 11165.60,25160.55 10917.93,25373.49 10648.75,25604.92 10389.58,25827.78 10135.73,26046.06 9918.78,26233.13 9677.05,26441.57 9431.01,26653.73 9134.03,26908.34 8910.65,27099.07 8669.60,27307.25 8481.92,27469.34 8230.50,27685.60 7748.53,28100.23 7282.13,28501.50 7026.72,28721.26 6801.12,28916.45 6570.66,29114.98 6328.87,29323.26 6112.15,29509.33 5681.90,29898.07 5426.97,30065.22 4813.03,30511.55"/>
    <poly id="381141219" type="unknown" color="51,128,255" fill="0" layer="-1.00" shape="24039.00,15141.21 23773.49,15341.81 23493.51,15552.40 23224.18,15753.96 22945.63,15963.72 22724.38,16130.02 22427.30,16353.08 22201.94,16524.58 21973.21,16693.56 21691.18,16904.83 21459.66,17078.37 21191.09,17282.18 20976.84,17442.77 20664.38,17676.42 20386.14,17885.60 20075.86,18121.28 19789.75,18332.70 19485.04,18562.66 19214.90,18764.50 18947.44,18966.65 18644.34,19193.01 18344.40,19421.16 18038.31,19650.38 17793.71,19833.37 17534.15,20026.72 17231.03,20256.75 16961.61,20462.76 16704.93,20650.58 16429.61,20858.65 16193.49,21038.21 15986.21,21192.42 15715.59,21399.64 15542.03,21529.10 15307.59,21702.13 15178.25,21807.84 15015.71,21937.58 14725.79,22154.81 14465.60,22349.14 14169.47,22570.84 14034.76,22671.70 13899.23,22773.16 13786.08,22871.67 13514.16,23111.00 13249.69,23344.49 13074.07,23495.74 12851.75,23686.32 12573.94,23925.67 12288.89,24168.14 12050.81,24373.15 11811.25,24575.62 11664.30,24630.52 11426.74,24716.49"/>
    <poly id="381141220" type="unknown" color="51,128,255" fill="0" layer="-1.00" shape="24095.56,14979.28 23946.45,15130.85 23791.44,15249.81 23579.25,15407.82 23374.11,15561.02 23171.63,15712.40 22985.56,15853.32 22785.19,16004.40 22620.36,16128.98 22376.65,16313.44 22029.57,16573.71 21746.76,16782.69 21455.34,17004.03 21238.63,17165.40 21070.86,17291.29 20894.38,17425.75 20612.47,17635.97 20352.49,17829.86 20072.41,18043.93 19800.44,18246.65 19547.54,18435.90 19279.59,18637.87 19064.53,18799.12 18824.74,18978.70 18585.66,19157.96 18321.98,19357.47 18049.17,19562.42 17787.88,19757.50 17523.60,19955.26 17296.40,20125.70 17090.22,20281.50 16906.52,20418.22 16666.65,20597.99 16391.26,20804.97 16152.62,20984.77 15923.68,21157.59 15647.87,21362.32 15478.48,21490.10 15213.01,21690.79 14904.93,21919.96 14593.96,22155.91 14383.00,22312.23 14110.54,22518.20 13941.21,22646.81 13754.72,22804.73 13523.60,23004.43 13320.26,23180.46 13074.83,23391.69 12873.57,23564.03 12660.43,23747.78 12433.51,23942.66 12185.17,24156.50 11935.52,24374.00 11710.59,24566.88 11420.05,24816.04 11170.23,25030.45 10922.22,25246.74 10682.55,25451.44 10413.62,25682.26 10167.72,25895.14 9906.30,26118.86 9687.56,26308.84 9453.30,26509.02 9264.32,26669.89 9021.25,26878.21 8812.90,27058.25 8605.15,27237.78 8414.57,27400.92 8219.88,27569.25 8005.77,27753.62 7797.77,27932.86 7569.91,28131.45 7351.96,28317.25 7137.26,28500.29 6910.82,28696.80 6684.14,28890.78 6457.16,29088.49 6236.78,29278.88 5982.35,29495.96 5715.72,29724.43 5501.78,29923.30 5321.24,30052.17"/>
    <poly id="385306098" type="industrial" color="209,209,204" fill="1" layer="-3.00" shape="17857.27,16715.41 17884.66,16830.27 17476.63,16926.66 17449.22,16811.79 17857.27,16715.41"/>
    <poly id="385306098#1" type="building" color="255,230,230" fill="1" layer="-1.00" shape="17857.27,16715.41 17884.66,16830.27 17476.63,16926.66 17449.22,16811.79 17857.27,16715.41"/>
    <poly id="439618040" type="landuse" color="194,194,130" fill="1" layer="-3.00" shape="18264.88,16978.65 18055.40,17030.23 18014.93,16867.48 18224.42,16815.90 18264.88,16978.65"/>
    <poly id="439618041" type="landuse" color="194,194,130" fill="1" layer="-3.00" shape="18495.13,16930.97 18525.38,16861.51 18531.53,16840.52 18604.34,16830.44 18613.20,16890.93 18653.03,16885.17 18703.37,17077.60 18825.34,16840.15 18807.07,16787.00 18689.81,16811.10 18670.30,16712.83 18445.70,16765.29 18320.98,16798.79 18363.34,16959.09 18495.13,16930.97"/>
    <poly id="450833392" type="building" color="255,230,230" fill="1" layer="-1.00" shape="18384.58,17090.08 18326.53,17105.44 18303.37,17018.83 18361.42,17003.47 18384.58,17090.08"/>
    <poly id="450833396" type="building" color="255,230,230" fill="1" layer="-1.00" shape="18354.60,17210.70 18412.76,17195.46 18389.29,17106.76 18331.13,17122.02 18354.60,17210.70"/>
    <poly id="459337521" type="building" color="255,230,230" fill="1" layer="-1.00" shape="15888.96,17692.81 15905.69,17688.82 15916.09,17731.99 15899.36,17735.98 15888.96,17692.81"/>
    <poi id="1844505440" type="unknown" color="51,128,255" layer="4.00" x="-31763.36" y="129.30"/>
    <poi id="1844505441" type="unknown" color="51,128,255" layer="4.00" x="-31459.57" y="198.23"/>
    <poi id="1920147561" type="tourism" color="207,245,201" layer="3.00" x="12877.71" y="20539.13"/>
    <poi id="2109302410" type="unknown" color="51,128,255" layer="4.00" x="-40019.31" y="-2340.59"/>
    <poi id="2109302419" type="unknown" color="51,128,255" layer="4.00" x="-39066.82" y="-1498.20"/>
    <poi id="2109302423" type="unknown" color="51,128,255" layer="4.00" x="-38204.39" y="-1306.69"/>
    <poi id="2109302425" type="unknown" color="51,128,255" layer="4.00" x="-36848.87" y="-1001.00"/>
    <poi id="2109302427" type="unknown" color="51,128,255" layer="4.00" x="-35425.38" y="-685.72"/>
    <poi id="2109302428" type="unknown" color="51,128,255" layer="4.00" x="-35037.45" y="-598.85"/>
    <poi id="2109302433" type="unknown" color="51,128,255" layer="4.00" x="-32633.87" y="-62.91"/>
    <poi id="3708782046" type="unknown" color="51,128,255" layer="4.00" x="-32202.26" y="31.09"/>
    <poi id="3708782049" type="unknown" color="51,128,255" layer="4.00" x="-33055.29" y="-156.92"/>
    <poi id="3708782056" type="unknown" color="51,128,255" layer="4.00" x="-35906.00" y="-785.04"/>
    <poi id="3708782058" type="unknown" color="51,128,255" layer="4.00" x="-36390.50" y="-896.03"/>
    <poi id="3708782067" type="unknown" color="51,128,255" layer="4.00" x="-39366.11" y="-1750.84"/>
    <poi id="3708782069" type="unknown" color="51,128,255" layer="4.00" x="-39774.32" y="-2119.42"/>
    <poi id="3708784231" type="unknown" color="51,128,255" layer="4.00" x="-33459.24" y="-247.03"/>
    <poi id="3708784232" type="unknown" color="51,128,255" layer="4.00" x="-34132.87" y="-397.23"/>
    <poi id="3708788254" type="unknown" color="51,128,255" layer="4.00" x="-34583.46" y="-497.67"/>
    <poi id="3708788592" type="unknown" color="51,128,255" layer="4.00" x="-37766.83" y="-1208.04"/>
    <poi id="3708788593" type="unknown" color="51,128,255" layer="4.00" x="-38713.83" y="-1419.82"/>
    <poi id="3708788594" type="unknown" color="51,128,255" layer="4.00" x="-40232.18" y="-2524.34"/>
    <poi id="3708788595" type="unknown" color="51,128,255" layer="4.00" x="-40578.69" y="-2839.05"/>
    <poi id="3841158500" type="unknown" color="51,128,255" layer="4.00" x="-40933.48" y="-3149.61"/>
    <poi id="3841158503" type="unknown" color="51,128,255" layer="4.00" x="-40853.43" y="-3081.71"/>
    <poi id="3843829932" type="unknown" color="51,128,255" layer="4.00" x="-27939.24" y="578.67"/>
    <poi id="3843829939" type="unknown" color="51,128,255" layer="4.00" x="-27553.07" y="620.47"/>
    <poi id="3843829944" type="unknown" color="51,128,255" layer="4.00" x="-27014.58" y="664.04"/>
    <poi id="3843829947" type="unknown" color="51,128,255" layer="4.00" x="-26644.06" y="689.65"/>
    <poi id="3843829950" type="unknown" color="51,128,255" layer="4.00" x="-24421.50" y="753.81"/>
    <poi id="3843829951" type="unknown" color="51,128,255" layer="4.00" x="-24766.84" y="752.12"/>
    <poi id="3843829953" type="unknown" color="51,128,255" layer="4.00" x="-26276.10" y="721.80"/>
    <poi id="3843829954" type="unknown" color="51,128,255" layer="4.00" x="-24171.96" y="771.81"/>
    <poi id="3843829955" type="unknown" color="51,128,255" layer="4.00" x="-25066.76" y="753.47"/>
    <poi id="3843835179" type="unknown" color="51,128,255" layer="4.00" x="4786.81" y="11298.67"/>
    <poi id="3843835197" type="unknown" color="51,128,255" layer="4.00" x="4986.55" y="11718.05"/>
    <poi id="3843835213" type="unknown" color="51,128,255" layer="4.00" x="5184.99" y="12149.59"/>
    <poi id="3843835226" type="unknown" color="51,128,255" layer="4.00" x="5362.22" y="12524.94"/>
    <poi id="3843835243" type="unknown" color="51,128,255" layer="4.00" x="5593.81" y="12821.53"/>
    <poi id="3843835268" type="unknown" color="51,128,255" layer="4.00" x="-31115.06" y="232.80"/>
    <poi id="3843835271" type="unknown" color="51,128,255" layer="4.00" x="-30687.94" y="279.05"/>
    <poi id="3843835276" type="unknown" color="51,128,255" layer="4.00" x="-30253.01" y="326.45"/>
    <poi id="3843835283" type="unknown" color="51,128,255" layer="4.00" x="-29785.82" y="374.77"/>
    <poi id="3843835290" type="unknown" color="51,128,255" layer="4.00" x="-29323.14" y="426.33"/>
    <poi id="3843835297" type="unknown" color="51,128,255" layer="4.00" x="-28882.92" y="472.63"/>
    <poi id="3843835303" type="unknown" color="51,128,255" layer="4.00" x="-28500.25" y="515.69"/>
    <poi id="3843835328" type="unknown" color="51,128,255" layer="4.00" x="4052.54" y="9717.83"/>
    <poi id="3843835342" type="unknown" color="51,128,255" layer="4.00" x="4224.90" y="10096.07"/>
    <poi id="3843835356" type="unknown" color="51,128,255" layer="4.00" x="4410.35" y="10499.99"/>
    <poi id="3843835457" type="unknown" color="51,128,255" layer="4.00" x="-25482.85" y="749.30"/>
    <poi id="3843835461" type="unknown" color="51,128,255" layer="4.00" x="-25861.95" y="752.48"/>
    <poi id="3843835464" type="unknown" color="51,128,255" layer="4.00" x="-23799.08" y="800.70"/>
    <poi id="3843835465" type="unknown" color="51,128,255" layer="4.00" x="-23422.80" y="832.79"/>