<?xml version="1.0" encoding="UTF-8"?>

<!-- generated on 02/12/18 01:05:36 by SUMO duarouter Version 0.32.0
<?xml version="1.0" encoding="UTF-8"?>

<configuration xmlns:xsi="http://www.w3.org/2001/XMLSchema-instance" xsi:noNamespaceSchemaLocation="http://sumo.dlr.de/xsd/duarouterConfiguration.xsd">

    <input>
        <net-file value="map.net.xml"/>
        <route-files value="trips.trips.xml"/>
    </input>

    <output>
        <output-file value="map.rou.xml"/>
        <alternatives-output value="map.rou.alt.xml"/>
    </output>

    <processing>
        <ignore-errors value="true"/>
    </processing>

    <time>
        <begin value="0"/>
        <end value="100.0"/>
    </time>

    <report>
        <no-warnings value="true"/>
        <no-step-log value="true"/>
    </report>

</configuration>
-->

<routes xmlns:xsi="http://www.w3.org/2001/XMLSchema-instance" xsi:noNamespaceSchemaLocation="http://sumo.dlr.de/xsd/routes_file.xsd">
    <vehicle id="0" depart="0.00">
        <route edges="-30312322#2 -30312322#1 -30312322#0 30312322#0 30312322#1 30312322#2 -264005998#0 69706087#0 69706087#1 69706087#2 69706087#3"/>
    </vehicle>
    <vehicle id="5" depart="5.00">
        <route edges="-69706087#3 69706087#3"/>
    </vehicle>
    <vehicle id="9" depart="9.00">
        <route edges="316955647#2"/>
    </vehicle>
    <vehicle id="10" depart="10.00">
        <route edges="141037205#1 206820879 69706305 264005998#0 -264005998#0 -69706305 -206820879 141037215 297056550#3 264005985 264005993 264005995 264005996 264005997"/>
    </vehicle>
    <vehicle id="11" depart="11.00">
        <route edges="264006073#1 264006073#2 264006073#3 69706088 69706310 69706311#0 69706311#1 206820879 69706305 264005998#0 -264005998#0 -69706305 -206820879 141037215 297056550#3 297056550#4 297056550#5 55915020"/>
    </vehicle>
    <vehicle id="12" depart="12.00">
        <route edges="69706088 69706310 69706311#0 69706311#1 206820879 69706305 69706087#0 -55915013"/>
    </vehicle>
    <vehicle id="17" depart="17.00">
        <route edges="264005981#1 264005982#1 264005992#3 264005992#4 264005992#5 264005984 264006073#2 264006073#3 69706088 69706310 69706311#0 69706311#1 206820879 69706305 264005998#0 264005998#1"/>
    </vehicle>
    <vehicle id="19" depart="19.00">
        <route edges="264005981#0 264005981#1 264005982#1 264005992#3 264005992#4 264005992#5 264005984 264006073#2 264006073#3 69706088 69706310 69706311#0 69706311#1 206820879 69706305 264005998#0 264005998#1"/>
    </vehicle>
    <vehicle id="21" depart="21.00">
        <route edges="55915021#0 55915021#1 264006073#0 264006073#1 264006073#2 264006073#3 69706088 69706310 69706311#0 69706311#1 206820879 69706305 264005998#0 264005998#1"/>
    </vehicle>
    <vehicle id="24" depart="24.00">
        <route edges="-264005998#1 264005998#1"/>
    </vehicle>
    <vehicle id="26" depart="26.00">
        <route edges="-264005998#1 -264005998#0 69706087#0 69706087#1 69706087#2 69706087#3"/>
    </vehicle>
    <vehicle id="30" depart="30.00">
        <route edges="264006073#2 264006073#3 69706088 69706310 69706311#0 69706311#1 206820879 69706305 264005998#0 264005998#1"/>
    </vehicle>
    <vehicle id="32" depart="32.00">
        <route edges="30312322#0 30312322#1 30312322#2 -264005998#0 -69706305 -206820879 141037215 297056550#3 264005985 264005994#3 264005994#4 264005994#0 264005990 -264005989 -264005988 -264005987 272246830 264005992#1 264005992#2 264005992#3 264005992#4 264005992#5 264005984 264006073#2 264006073#3 69706088"/>
    </vehicle>
    <vehicle id="42" depart="42.00">
        <route edges="368630564 -69706087#1 -69706087#0 -69706305 -206820879 141037215 297056550#3 264005985 264005994#3 264005994#4 264005994#0 264005990 -264005989 -264005988 -264005987 272246830 264005992#1 264005992#2 264005992#3 264005992#4 264005992#5 264005984 264006073#2"/>
    </vehicle>
    <vehicle id="45" depart="45.00">
        <route edges="69706088 69706310 69706311#0 69706311#1 206820879 69706305 264005998#0 264005998#1"/>
    </vehicle>
    <vehicle id="46" depart="46.00">
        <route edges="-67171281#1 67171281#1 67171281#2"/>
    </vehicle>
    <vehicle id="50" depart="50.00">
        <route edges="55915013 -69706087#0 264005998#0 -30312322#2"/>
    </vehicle>
    <vehicle id="51" depart="51.00">
        <route edges="30312322#0 30312322#1 30312322#2 -264005998#0 69706087#0 69706087#1 69706087#2 69706087#3"/>
    </vehicle>
    <vehicle id="55" depart="55.00">
        <route edges="264006073#2 264006073#3 264006073#4 264006073#5"/>
    </vehicle>
    <vehicle id="58" depart="58.00">
        <route edges="297056550#3 264005985 264005994#3 264005994#4 264005994#0 264005990 -264005989 -264005988 -264005987 272246830 264005992#1 264005992#2 264005992#3 264005980 -264005979#1 -317729790"/>
    </vehicle>
    <vehicle id="61" depart="61.00">
        <route edges="-264005998#1 -264005998#0 -69706305 -206820879 141037215 297056550#3 264005985 264005994#3 264005994#4 264005994#0 264005990 -264005989 -264005988 -264005987 272246830 264005992#1 264005992#2 264005992#3 264005980 -264005979#1 -264005979#0 264005979#0"/>
    </vehicle>
    <vehicle id="62" depart="62.00">
        <route edges="-264005998#1 -30312322#2 -30312322#1 -30312322#0 30312322#0 30312322#1 30312322#2"/>
    </vehicle>
    <vehicle id="63" depart="63.00">
        <route edges="-69706087#3 -69706087#2 -69706087#1 -69706087#0 -69706305 -206820879 -69706311#1 -69706311#0 -69706310 141037209"/>
    </vehicle>
    <vehicle id="64" depart="64.00">
        <route edges="-69706087#3 69706087#3"/>
    </vehicle>
    <vehicle id="65" depart="65.00">
        <route edges="69706087#0 -69706087#0 264005998#0 -30312322#2 -30312322#1 -30312322#0"/>
    </vehicle>
    <vehicle id="68" depart="68.00">
        <route edges="264005981#0 264005981#1 264005982#1 264005992#3 264005992#4 264005992#5 264005984 264006073#2 264006073#3 69706088 69706310 69706311#0 69706311#1 206820879 69706305 264005998#0 -264005998#0 -69706305 -206820879 141037215 297056550#3 264005985"/>
    </vehicle>
    <vehicle id="69" depart="69.00">
        <route edges="-264005998#1 -264005998#0 69706087#0 -55915013"/>
    </vehicle>
    <vehicle id="71" depart="71.00">
        <route edges="264006073#2 264006073#3 69706088 69706310 69706311#0 69706311#1 206820879 69706305 264005998#0 -264005998#0 -69706305 -206820879 -69706311#1"/>
    </vehicle>
    <vehicle id="74" depart="74.00">
        <route edges="317729790 264005979#1 272246832 264005992#5 264005992#6 264005991 264005987 264005988 264005989 459337523 264005986"/>
    </vehicle>
    <vehicle id="75" depart="75.00">
        <route edges="-171895787 -171895777 -316955647#2 -316955647#1 -316955647#0"/>
    </vehicle>
    <vehicle id="76" depart="76.00">
        <route edges="297056550#0 297056550#1 297056550#2 297056550#3 264005985 264005994#3 264005994#4 264005994#0 264005990 -264005989 -264005988 -264005987 272246830 264005992#1 264005992#2 264005992#3 264005980 -264005979#1 -317729790"/>
    </vehicle>
    <vehicle id="77" depart="77.00">
        <route edges="297056550#2 297056550#3 297056550#4 297056550#5 55915020"/>
    </vehicle>
    <vehicle id="80" depart="80.00">
        <route edges="141037208 69706311#1 206820879 69706305 264005998#0 264005998#1"/>
    </vehicle>
    <vehicle id="82" depart="82.00">
        <route edges="55915021#0 55915021#1 264006073#0 264006073#1 264006073#2 264006073#3 69706088 69706310 69706311#0 69706311#1 206820879 69706305 69706087#0"/>
    </vehicle>
    <vehicle id="85" depart="85.00">
        <route edges="-264005998#1 -264005998#0 -69706305 -206820879 -69706311#1 69706311#1"/>
    </vehicle>
    <vehicle id="88" depart="88.00">
        <route edges="368630564 -69706087#1 -69706087#0 -69706305"/>
    </vehicle>
    <vehicle id="90" depart="90.00">
        <route edges="317729790 -317729790"/>
    </vehicle>
    <vehicle id="91" depart="91.00">
        <route edges="525904686 264006044#1 264006044#2"/>
    </vehicle>
    <vehicle id="92" depart="92.00">
        <route edges="-264005998#1 -30312322#2 -30312322#1 -30312322#0"/>
    </vehicle>
    <vehicle id="94" depart="94.00">
        <route edges="55915021#0 55915021#1 264006073#0 264005983 264005991 264005987 264005988 264005989 459337523 264005994#2 264005993 264005995 264005996 264005997"/>
    </vehicle>
    <vehicle id="95" depart="95.00">
        <route edges="264005994#0 264005990 -264005989 -264005988 -264005987 272246830 264005992#1 264005992#2 264005992#3 264005992#4 264005992#5 264005984 264006073#2 264006073#3 69706088 69706310 69706311#0 69706311#1 206820879 69706305 264005998#0 -264005998#0 -69706305 -206820879 141037215 297056550#3 297056550#4"/>
    </vehicle>
    <vehicle id="98" depart="98.00">
        <route edges="67171281#0 67171281#1 67171281#2 -67171281#2"/>
    </vehicle>
</routes>
